OPT_V10/Two_days_first_run/powerflow_results_t39.txt
Pandapower Network Debug Info
==================================================

BUS:
       vm_pu  va_degree      p_mw    q_mvar
0   0.994882   0.260453 -0.000156  0.001194
1   0.991691   0.417626  0.000257  0.002200
2   0.988619   0.553721  0.000838  0.003228
3   0.991812   0.405276  0.001022  0.004532
4   0.990246   0.337382  0.002168  0.005592
5   0.994451   0.236963  0.001640  0.005491
6   0.993630   0.289158  0.000081  0.001097
7   0.998528   0.078244  0.000230  0.002135
8   0.998280   0.062220  0.000375  0.002449
9   0.999838   0.002164  0.008847  0.011134
10  0.999844   0.002080  0.009032  0.008952
11  0.999861   0.001908  0.011102  0.012163
12  0.999806   0.002386  0.008870  0.005858
13  0.999781   0.002477  0.011336  0.008680
14  0.999790   0.002482  0.011301  0.011349
15  0.999936   0.001143  0.000000  0.000000
16  0.999936   0.001149  0.000000  0.000000
17  0.999811   0.002407  0.000000  0.000000
18  0.999811   0.002417  0.000000  0.000000
19  1.000000   0.000000 -0.031071 -0.048490
20  1.000000   0.000007  0.000000  0.000000
21  1.000000   0.000000 -0.036127 -0.047734
22  1.000000   0.000007  0.000000  0.000000
--------------------------------------------------

LINE:
    p_from_mw  q_from_mvar   p_to_mw  q_to_mvar         pl_mw       ql_mvar  i_from_ka   i_to_ka      i_ka  vm_from_pu  va_from_degree  vm_to_pu  va_to_degree  loading_percent
0    0.031061     0.044490 -0.031058  -0.044488  2.879768e-06  2.245402e-06   0.002088  0.002088  0.002088    1.000000        0.000007  0.999936      0.001143         0.908030
1    0.036117     0.043734 -0.036109  -0.043728  8.653727e-06  6.747454e-06   0.002183  0.002183  0.002183    1.000000        0.000007  0.999811      0.002407         0.949197
2    0.028984     0.032252 -0.028981  -0.032250  2.601250e-06  2.028238e-06   0.001669  0.001669  0.001669    0.999936        0.001143  0.999861      0.001908         0.725696
3    0.008870     0.005858 -0.008870  -0.005858  3.908861e-08  3.047803e-08   0.000409  0.000409  0.000409    0.999811        0.002407  0.999806      0.002386         0.177918
4    0.022637     0.020029 -0.022637  -0.020029  4.997437e-07  3.896584e-07   0.001164  0.001164  0.001164    0.999811        0.002407  0.999790      0.002482         0.505921
5    0.002065     0.011236 -0.002004  -0.011188  6.104850e-05  4.760052e-05   0.016490  0.016490  0.016490    0.999936        0.001149  0.994882      0.260453         7.169615
6    0.001759     0.006617 -0.001722  -0.006589  3.638712e-05  2.837164e-05   0.009885  0.009885  0.009885    0.999811        0.002417  0.994451      0.236963         4.297795
7    0.000233     0.002137 -0.000230  -0.002135  3.124004e-06  2.435837e-06   0.003104  0.003104  0.003104    0.999811        0.002417  0.998528      0.078244         1.349461
8    0.002600     0.008086 -0.002588  -0.008077  1.240966e-05  9.676016e-06   0.012262  0.012262  0.012262    0.999811        0.002417  0.998280      0.062220         5.331460
9    0.008847     0.011134 -0.008847  -0.011134  6.996092e-08  5.454968e-08   0.000547  0.000547  0.000547    0.999844        0.002080  0.999838      0.002164         0.238024
10   0.017879     0.020087 -0.017879  -0.020086  3.537584e-07  2.758312e-07   0.001035  0.001035  0.001035    0.999861        0.001908  0.999844      0.002080         0.450080
11   0.011336     0.008680 -0.011336  -0.008680  9.973583e-08  7.776567e-08   0.000550  0.000550  0.000550    0.999790        0.002482  0.999781      0.002477         0.238980
12  -0.001105    -0.005436  0.001123   0.005450  1.851042e-05  1.443288e-05   0.008074  0.008074  0.008074    0.991691        0.417626  0.994882      0.260453         3.510237
13  -0.001022    -0.004532  0.001036   0.004543  1.464920e-05  1.142222e-05   0.006761  0.006761  0.006761    0.991812        0.405276  0.994882      0.260453         2.939496
14  -0.000838    -0.003228  0.000848   0.003236  1.029074e-05  8.023858e-06   0.004868  0.004868  0.004868    0.988619        0.553721  0.991691      0.417626         2.116645
15   0.002213     0.005627 -0.002168  -0.005592  4.464237e-05  3.480839e-05   0.008743  0.008743  0.008743    0.998280        0.062220  0.990246      0.337382         3.801227
16  -0.000081    -0.001097  0.000082   0.001098  1.067428e-06  8.322914e-07   0.001598  0.001598  0.001598    0.993630        0.289158  0.994451      0.236963         0.694874
--------------------------------------------------

TRAFO:
    p_hv_mw  q_hv_mvar   p_lv_mw  q_lv_mvar    pl_mw  ql_mvar   i_hv_ka   i_lv_ka  vm_hv_pu  va_hv_degree  vm_lv_pu  va_lv_degree  loading_percent
0  0.002075   0.012236 -0.002065  -0.011236  0.00001    0.001  0.000478  0.016490  0.999936      0.001143  0.999936      0.001149         0.124111
1  0.004602   0.017841 -0.004592  -0.016841  0.00001    0.001  0.000709  0.025200  0.999811      0.002407  0.999811      0.002417         0.184280
2  0.031071   0.048490 -0.031061  -0.044490  0.00001    0.004  0.000475  0.002088  1.000000      0.000000  1.000000      0.000007         0.143977
3  0.036127   0.047734 -0.036117  -0.043734  0.00001    0.004  0.000494  0.002183  1.000000      0.000000  1.000000      0.000007         0.149661
--------------------------------------------------
